[General]
description = "IEEE 80211 mac with scalar radio"
network = Using80211MAC
sim-time-limit = 400s
#cpu-time-limit = 600s
debug-on-errors = true
record-eventlog = true
tkenv-plugin-path = ../../../etc/plugins
cmdenv-express-mode = true
num-rngs = 4
#repeat=3
#seed-set = 3
#total-stack = 2MiB
#cmdenv-event-banners = true
#debug-statistics-recording = true
#output-scalar-file = results.sca
#output-scalar-precision = 3
#output-vector-precision = 4
#**.scalar-recording = true
#**.vector-recording = true
#snapshot-file = omnetpp.sna
#**.udpApp[*].**.scalar-recording = true
#**.H{1..4}.udpApp[0].typename = "UDPBasicBurst"
#Using80211MAC.result-recording-modes = mean
#**.H{1}.udpApp[*].sentPk.result-recording-modes = count 

Using80211MAC.configurator.addDefaultRoutes = true
Using80211MAC.configurator.addStaticRoutes = true
Using80211MAC.configurator.addSubnetRoutes = true
Using80211MAC.configurator.assignAddresses = true
Using80211MAC.configurator.assignDisjunctSubnetAddresses = true
Using80211MAC.configurator.config = xml("<config><interface hosts='**' address='10.x.x.x' netmask='255.x.x.x'/></config>")
Using80211MAC.configurator.dumpAddresses = false
Using80211MAC.configurator.dumpConfig = ""
Using80211MAC.configurator.dumpLinks = false
Using80211MAC.configurator.dumpRoutes = false
Using80211MAC.configurator.dumpTopology = false
Using80211MAC.configurator.minLinkWeight = 1E-3
Using80211MAC.configurator.optimizeRoutes = true
#Using80211MAC.host[*].energyGenerator.generationInterval = exponential(25s)
#Using80211MAC.host[*].energyGenerator.powerGeneration = 4mW
#Using80211MAC.host[*].energyGenerator.sleepInterval = exponential(25s)
Using80211MAC.host[*].energyGeneratorType = ""
#Using80211MAC.host[*].energyManagement.nodeShutdownCapacity = 0.1 * energyStorage.nominalCapacity
#Using80211MAC.host[*].energyManagement.nodeStartCapacity = 0.5 * energyStorage.nominalCapacity
Using80211MAC.host[*].energyManagementType = "SimpleEpEnergyManagement"
Using80211MAC.host[*].energyStorage.initialCapacity = uniform(0.1 * energyStorage.nominalCapacity, energyStorage.nominalCapacity)
Using80211MAC.host[*].energyStorage.nominalCapacity = 0.05J
Using80211MAC.host[*].energyStorageType = "SimpleEpEnergyStorage"
Using80211MAC.host[*].eth[*].csmacdSupport = false
Using80211MAC.host[*].eth[*].egressTCType = ""
Using80211MAC.host[*].eth[*].encap.interfaceTableModule = absPath(interfaceTableModule)
Using80211MAC.host[*].eth[*].encap.useSNAP = false
Using80211MAC.host[*].eth[*].encapType = "EtherEncap"
Using80211MAC.host[*].eth[*].ingressTCType = ""
Using80211MAC.host[*].eth[*].interfaceTableModule = absPath(".interfaceTable")
#Using80211MAC.host[*].eth[*].mac.address = 
#Using80211MAC.host[*].eth[*].mac.duplexMode = 
#Using80211MAC.host[*].eth[*].mac.mtu = 
#Using80211MAC.host[*].eth[*].mac.promiscuous = 
#Using80211MAC.host[*].eth[*].mac.queueModule = (queueType == "" ? "" : "^.queue")
#Using80211MAC.host[*].eth[*].mac.txQueueLimit = (queueType == "" ? 10000 : 1)
#Using80211MAC.host[*].eth[*].macType = csmacdSupport ? "EtherMAC" : "EtherMACFullDuplex"
Using80211MAC.host[*].eth[*].numInputHooks = 0
Using80211MAC.host[*].eth[*].numOutputHooks = 0
Using80211MAC.host[*].eth[*].qeue.pauseQueue.queueName = "pauseQueue"
#Using80211MAC.host[*].eth[*].queue.dataQueueType = queueType
Using80211MAC.host[*].eth[*].queue.pauseQueue.frameCapacity = 100
Using80211MAC.host[*].eth[*].queueType = ""
Using80211MAC.host[*].forwarding = false
#Using80211MAC.host[*].hasSctp = numSctpApps > 0 
Using80211MAC.host[*].hasStatus = true
#Using80211MAC.host[*].hasTcp = numTcpApps > 0 
#Using80211MAC.host[*].hasTun = numTunInterfaces > 0 
#Using80211MAC.host[*].hasUdp = numUdpApps > 0 
Using80211MAC.host[*].interfaceTable.displayAddresses = false
Using80211MAC.host[*].lo0.interfaceTableModule = absPath(".interfaceTable")
#Using80211MAC.host[*].lo0.lo.interfaceTableModule = absPath(interfaceTableModule) 
Using80211MAC.host[*].lo0.lo.mtu = 4470B
Using80211MAC.host[*].lo0.numInputHooks = 0
Using80211MAC.host[*].lo0.numOutputHooks = 0
Using80211MAC.host[*].mobility.changeAngleBy = normal(0deg, 30deg)
Using80211MAC.host[*].mobility.changeInterval = truncnormal(2s, 0.5s)
Using80211MAC.host[*].mobility.constraintAreaMaxX = 60m
Using80211MAC.host[*].mobility.constraintAreaMaxY = 40m
Using80211MAC.host[*].mobility.constraintAreaMaxZ = 0m
Using80211MAC.host[*].mobility.constraintAreaMinX = 0m
Using80211MAC.host[*].mobility.constraintAreaMinY = 0m
Using80211MAC.host[*].mobility.constraintAreaMinZ = 0m
Using80211MAC.host[*].mobility.coordinateSystemModule = ""
Using80211MAC.host[*].mobility.initFromDisplayString = false
#Using80211MAC.host[*].mobility.initialX = uniform(constraintAreaMinX, constraintAreaMaxX) 
#Using80211MAC.host[*].mobility.initialY = uniform(constraintAreaMinY, constraintAreaMaxY) 
#Using80211MAC.host[*].mobility.initialZ = nanToZero(uniform(constraintAreaMinZ, constraintAreaMaxZ)) 
Using80211MAC.host[*].mobility.rng-0 = 1
Using80211MAC.host[*].mobility.speed = truncnormal(20mps, 8mps)
Using80211MAC.host[*].mobility.startAngle = uniform(0deg, 360deg)
Using80211MAC.host[*].mobility.updateInterval = 100ms
Using80211MAC.host[*].mobility.visualizeMobility = true
Using80211MAC.host[*].mobility.visualRepresentation = "^"
Using80211MAC.host[*].mobilityType = "MassMobility"
Using80211MAC.host[*].multicastForwarding = false
Using80211MAC.host[*].networkLayer.arp.cacheTimeout = 120s
#Using80211MAC.host[*].networkLayer.arp.interfaceTableModule = absPath(interfaceTableModule) 
#Using80211MAC.host[*].networkLayer.arp.respondToProxyARP = proxyARP
Using80211MAC.host[*].networkLayer.arp.retryCount = 3
Using80211MAC.host[*].networkLayer.arp.retryTimeout = 1s
#Using80211MAC.host[*].networkLayer.arp.routingTableModule = absPath(routingTableModule) 
Using80211MAC.host[*].networkLayer.arpType = "GlobalARP"
Using80211MAC.host[*].networkLayer.configurator.configureRoutingTable = true
#Using80211MAC.host[*].networkLayer.configurator.interfaceTableModule = absPath(interfaceTableModule) 
Using80211MAC.host[*].networkLayer.configurator.networkConfiguratorModule = "configurator"
#Using80211MAC.host[*].networkLayer.icmp.interfaceTableModule = absPath(interfaceTableModule) 
#Using80211MAC.host[*].networkLayer.icmp.routingTableModule = absPath(routingTableModule) 
Using80211MAC.host[*].networkLayer.igmp.enabled = true
#Using80211MAC.host[*].networkLayer.igmp.groupMembershipInterval = (robustnessVariable * queryInterval) + queryResponseInterval 
#Using80211MAC.host[*].networkLayer.igmp.interfaceTableModule = absPath(interfaceTableModule) 
#Using80211MAC.host[*].networkLayer.igmp.lastMemberQueryCount = robustnessVariable 
Using80211MAC.host[*].networkLayer.igmp.lastMemberQueryInterval = 1s
#Using80211MAC.host[*].networkLayer.igmp.otherQuerierPresentInterval = (robustnessVariable * queryInterval) + (queryResponseInterval / 2) 
Using80211MAC.host[*].networkLayer.igmp.queryInterval = 125s
Using80211MAC.host[*].networkLayer.igmp.queryResponseInterval = 10s
Using80211MAC.host[*].networkLayer.igmp.robustnessVariable = 2
#Using80211MAC.host[*].networkLayer.igmp.routingTableModule = absPath(routingTableModule) 
#Using80211MAC.host[*].networkLayer.igmp.startupQueryCount = robustnessVariable 
#Using80211MAC.host[*].networkLayer.igmp.startupQueryInterval = queryInterval / 4 
Using80211MAC.host[*].networkLayer.igmp.unsolicitedReportInterval = 10s
Using80211MAC.host[*].networkLayer.igmpType = "IGMPv2"
Using80211MAC.host[*].networkLayer.interfaceTableModule = absPath(".interfaceTable")
Using80211MAC.host[*].networkLayer.ip.arpModule = absPath(".arp")
Using80211MAC.host[*].networkLayer.ip.forceBroadcast = false
Using80211MAC.host[*].networkLayer.ip.fragmentTimeout = 60s
Using80211MAC.host[*].networkLayer.ip.icmpModule = absPath(".icmp")
#Using80211MAC.host[*].networkLayer.ip.interfaceTableModule = absPath(interfaceTableModule) 
Using80211MAC.host[*].networkLayer.ip.multicastTimeToLive = 32
Using80211MAC.host[*].networkLayer.ip.procDelay = 0s
#Using80211MAC.host[*].networkLayer.ip.routingTableModule = absPath(routingTableModule) 
Using80211MAC.host[*].networkLayer.ip.timeToLive = 32
Using80211MAC.host[*].networkLayer.ip.useProxyARP = true
Using80211MAC.host[*].networkLayer.proxyARP = false
#Using80211MAC.host[*].networkLayer.routingTableModule = routingTableType != "" ? absPath(".routingTable") : "" 
Using80211MAC.host[*].networkLayerType = "IPv4NetworkLayer"
Using80211MAC.host[*].numExtInterfaces = 0
Using80211MAC.host[*].numPcapRecorders = 0
Using80211MAC.host[*].numRadios = 1
Using80211MAC.host[*].numSctpApps = 0
Using80211MAC.host[*].numTcpApps = 0
Using80211MAC.host[*].numTunInterfaces = 0
Using80211MAC.host[*].numUdpApps = 1
Using80211MAC.host[*].osgModel = ""
Using80211MAC.host[*].osgModelColor = ""
Using80211MAC.host[*].pcapRecorder[*].alwaysFlush = false
Using80211MAC.host[*].pcapRecorder[*].dumpBadFrames = true
Using80211MAC.host[*].pcapRecorder[*].moduleNamePatterns = "wlan[*] eth[*] ppp[*] ext[*]"
Using80211MAC.host[*].pcapRecorder[*].pcapFile = ""
Using80211MAC.host[*].pcapRecorder[*].receivingSignalNames = "packetReceivedFromLower"
Using80211MAC.host[*].pcapRecorder[*].sendingSignalNames = "packetSentToLower"
Using80211MAC.host[*].pcapRecorder[*].snaplen = 65535
Using80211MAC.host[*].pcapRecorder[*].verbose = false
#Using80211MAC.host[*].pingApp[*].continuous = false 
#Using80211MAC.host[*].pingApp[*].count = -1 
#Using80211MAC.host[*].pingApp[*].hopLimit = 32 
#Using80211MAC.host[*].pingApp[*].packetSize = 56B 
#Using80211MAC.host[*].pingApp[*].printPing = true 
#Using80211MAC.host[*].pingApp[*].sendInterval = 1s 
#Using80211MAC.host[*].pingApp[*].sleepDuration = 0s 
#Using80211MAC.host[*].pingApp[*].srcAddr = "" 
#Using80211MAC.host[*].pingApp[*].startTime = uniform(0s, this.sleepDuration + this.sendInterval) 
#Using80211MAC.host[*].pingApp[*].stopTime = -1s 
Using80211MAC.host[*].ppp[*].egressTCType = ""
Using80211MAC.host[*].ppp[*].ingressTCType = ""
Using80211MAC.host[*].ppp[*].interfaceTableModule = absPath(".interfaceTable")
Using80211MAC.host[*].ppp[*].numInputHooks = 0
Using80211MAC.host[*].ppp[*].numOutputHooks = 0
Using80211MAC.host[*].ppp[*].ppp.interfaceTableModule = absPath(interfaceTableModule)
Using80211MAC.host[*].ppp[*].ppp.mtu = 4470B
#Using80211MAC.host[*].ppp[*].ppp.queueModule = (queueType == "" ? "" : "^.queue")
#Using80211MAC.host[*].ppp[*].ppp.txQueueLimit = (queueType == "" ? 10000 : 1)
Using80211MAC.host[*].ppp[*].queue.frameCapacity = 100
Using80211MAC.host[*].ppp[*].queue.queueName = "l2queue"
Using80211MAC.host[*].ppp[*].queueType = "DropTailQueue"
#Using80211MAC.host[*].routingTable.forwarding = forwarding
Using80211MAC.host[*].routingTable.interfaceTableModule = absPath(".interfaceTable")
#Using80211MAC.host[*].routingTable.multicastForwarding = multicastForwarding
Using80211MAC.host[*].routingTable.netmaskRoutes = "*"
Using80211MAC.host[*].routingTable.routerId = "auto"
Using80211MAC.host[*].routingTable.routingFile = ""
Using80211MAC.host[*].routingTable.useAdminDist = false
Using80211MAC.host[*].routingTableType = "IPv4RoutingTable"
Using80211MAC.host[*].sctpType = firstAvailableOrEmpty("SCTP")
Using80211MAC.host[*].status.initialStatus = "UP"
Using80211MAC.host[*].tcpType = firstAvailableOrEmpty("TCP", "TCP_lwIP", "TCP_NSC")
Using80211MAC.host[*].tun[*].interfaceTableModule = absPath(".interfaceTable")
Using80211MAC.host[*].tun[*].mtu = 1500B
Using80211MAC.host[*].udpType = firstAvailableOrEmpty("UDP")
Using80211MAC.host[*].wlan[*]._agentNeeded = (mgmtType == "Ieee80211MgmtSTA")
Using80211MAC.host[*].wlan[*].agent.activeScan = true
Using80211MAC.host[*].wlan[*].agent.associationTimeout = 5s
Using80211MAC.host[*].wlan[*].agent.authenticationTimeout = 5s
Using80211MAC.host[*].wlan[*].agent.channelsToScan = ""  # "" means all
Using80211MAC.host[*].wlan[*].agent.default_ssid = "SSID"
Using80211MAC.host[*].wlan[*].agent.interfaceTableModule = absPath(interfaceTableModule)
Using80211MAC.host[*].wlan[*].agent.maxChannelTime = 300ms
Using80211MAC.host[*].wlan[*].agent.minChannelTime = 150ms
Using80211MAC.host[*].wlan[*].agent.probeDelay = 100ms
Using80211MAC.host[*].wlan[*].agent.startingTime = -1s
Using80211MAC.host[*].wlan[*].bitrate = ${bitrate = 6,9,12,18,24,36,48,54}Mbps
Using80211MAC.host[*].wlan[*].classifierType = ""
#Using80211MAC.host[*].wlan[*].energySourceModule = energyStorageType != "" ? absPath(".energyStorage") : "" 
Using80211MAC.host[*].wlan[*].interfaceTableModule = absPath(".interfaceTable")
Using80211MAC.host[*].wlan[*].mac.address = "auto"
Using80211MAC.host[*].wlan[*].mac.AIFSN = 2
Using80211MAC.host[*].wlan[*].mac.AIFSN0 = 7
Using80211MAC.host[*].wlan[*].mac.AIFSN1 = 3
Using80211MAC.host[*].wlan[*].mac.AIFSN2 = 2
Using80211MAC.host[*].wlan[*].mac.AIFSN3 = 2
Using80211MAC.host[*].wlan[*].mac.basicBitrate = 2Mbps
Using80211MAC.host[*].wlan[*].mac.bitrate = bitrate
Using80211MAC.host[*].wlan[*].mac.controlBitrate = 2Mbps
Using80211MAC.host[*].wlan[*].mac.cwMaxData = -1
Using80211MAC.host[*].wlan[*].mac.cwMinData = -1
Using80211MAC.host[*].wlan[*].mac.dataBitrate = 54Mbps
Using80211MAC.host[*].wlan[*].mac.dcf.channelAccess.contention.backoffOptimization = true
Using80211MAC.host[*].wlan[*].mac.dcf.channelAccess.contention.initialChannelBusy = true
#Using80211MAC.host[*].wlan[*].mac.dcf.channelAccess.cwMax = cwMaxData
#Using80211MAC.host[*].wlan[*].mac.dcf.channelAccess.cwMin = cwMinData
Using80211MAC.host[*].wlan[*].mac.dcf.channelAccess.difsTime = -1s
Using80211MAC.host[*].wlan[*].mac.dcf.channelAccess.rateSelectionModule = "^.rateSelection"
#Using80211MAC.host[*].wlan[*].mac.dcf.channelAccess.rxModule = "^." + rxModule
Using80211MAC.host[*].wlan[*].mac.dcf.ctsPolicy.rateSelectionModule = "^.rateSelection"
#Using80211MAC.host[*].wlan[*].mac.dcf.ctsPolicy.rxModule = "^." + rxModule
#Using80211MAC.host[*].wlan[*].mac.dcf.maxQueueSize = maxQueueSize
Using80211MAC.host[*].wlan[*].mac.dcf.originatorAckPolicy.ackTimeout = -1s
Using80211MAC.host[*].wlan[*].mac.dcf.originatorAckPolicy.rateSelectionModule = "^.rateSelection"
Using80211MAC.host[*].wlan[*].mac.dcf.originatorMacDataService.fragmentationPolicy.fragmentationThreshold = 1500B
Using80211MAC.host[*].wlan[*].mac.dcf.originatorMacDataService.fragmentationPolicyModuleType = "BasicFragmentationPolicy"
Using80211MAC.host[*].wlan[*].mac.dcf.originatorProtectionMechanism.rateSelectionModule = "^.rateSelection"
Using80211MAC.host[*].wlan[*].mac.dcf.prioritizeMulticast = false
#Using80211MAC.host[*].wlan[*].mac.dcf.rateControlType = rateControlType
#Using80211MAC.host[*].wlan[*].mac.dcf.rateSelection.controlFrameBitrate = controlBitrate
#Using80211MAC.host[*].wlan[*].mac.dcf.rateSelection.dataFrameBitrate = dataBitrate
#Using80211MAC.host[*].wlan[*].mac.dcf.rateSelection.mgmtFrameBitrate = mgmtBitrate
#Using80211MAC.host[*].wlan[*].mac.dcf.rateSelection.multicastFrameBitrate = multicastBitrate
Using80211MAC.host[*].wlan[*].mac.dcf.rateSelection.rateControlModule = "^.rateControl"
#Using80211MAC.host[*].wlan[*].mac.dcf.rateSelection.responseAckFrameBitrate = controlBitrate
Using80211MAC.host[*].wlan[*].mac.dcf.rateSelection.responseCtsFrameBitrate = -1bps
Using80211MAC.host[*].wlan[*].mac.dcf.recipientAckPolicy.rateSelectionModule = "^.rateSelection"
Using80211MAC.host[*].wlan[*].mac.dcf.recoveryProcedure.cwCalculatorModule = "^.channelAccess"
Using80211MAC.host[*].wlan[*].mac.dcf.recoveryProcedure.longRetryLimit = 4
Using80211MAC.host[*].wlan[*].mac.dcf.recoveryProcedure.rtsPolicyModule = "^.rtsPolicy"
Using80211MAC.host[*].wlan[*].mac.dcf.recoveryProcedure.shortRetryLimit = 7
Using80211MAC.host[*].wlan[*].mac.dcf.rtsPolicy.ctsTimeout = -1s
Using80211MAC.host[*].wlan[*].mac.dcf.rtsPolicy.rateSelectionModule = "^.rateSelection"
#Using80211MAC.host[*].wlan[*].mac.dcf.rtsPolicy.rtsThreshold = rtsThresholdBytes
Using80211MAC.host[*].wlan[*].mac.dcf.rxModule = "^.rx"
Using80211MAC.host[*].wlan[*].mac.dcf.txModule = "^.tx"
Using80211MAC.host[*].wlan[*].mac.EDCA = false
Using80211MAC.host[*].wlan[*].mac.hcf.ctsPolicy.rateSelectionModule = "^.rateSelection"
#Using80211MAC.host[*].wlan[*].mac.hcf.ctsPolicy.rxModule = "^." + rxModule
Using80211MAC.host[*].wlan[*].mac.hcf.edca.edcaf[*].accessCategory = "AC_BE"
Using80211MAC.host[*].wlan[*].mac.hcf.edca.edcaf[*].accessCategory = "AC_BK"
Using80211MAC.host[*].wlan[*].mac.hcf.edca.edcaf[*].accessCategory = "AC_VI"
Using80211MAC.host[*].wlan[*].mac.hcf.edca.edcaf[*].accessCategory = "AC_VO"
Using80211MAC.host[*].wlan[*].mac.hcf.edca.edcaf[*].aifsn = -1
Using80211MAC.host[*].wlan[*].mac.hcf.edca.edcaf[*].collisionControllerModule = "^.collisionController"
Using80211MAC.host[*].wlan[*].mac.hcf.edca.edcaf[*].contention.backoffOptimization = true
Using80211MAC.host[*].wlan[*].mac.hcf.edca.edcaf[*].contention.initialChannelBusy = true
Using80211MAC.host[*].wlan[*].mac.hcf.edca.edcaf[*].cwMax = -1
Using80211MAC.host[*].wlan[*].mac.hcf.edca.edcaf[*].cwMin = -1
#Using80211MAC.host[*].wlan[*].mac.hcf.edca.edcaf[*].rateSelectionModule = "^." + rateSelectionModule
#Using80211MAC.host[*].wlan[*].mac.hcf.edca.edcaf[*].rxModule = "^." + rxModule
Using80211MAC.host[*].wlan[*].mac.hcf.edca.numEdcafs = numEdcafs
Using80211MAC.host[*].wlan[*].mac.hcf.edca.rateSelectionModule = "^.rateSelection"
#Using80211MAC.host[*].wlan[*].mac.hcf.edca.rxModule = "^." + rxModule
Using80211MAC.host[*].wlan[*].mac.hcf.edcaDataRecoveryProcedures[*].cwCalculatorModule = "^.edca.edcaf[" + string(index) + "]"
Using80211MAC.host[*].wlan[*].mac.hcf.edcaDataRecoveryProcedures[*].longRetryLimit = 4
Using80211MAC.host[*].wlan[*].mac.hcf.edcaDataRecoveryProcedures[*].rtsPolicyModule = "^.rtsPolicy"
Using80211MAC.host[*].wlan[*].mac.hcf.edcaDataRecoveryProcedures[*].shortRetryLimit = 7
Using80211MAC.host[*].wlan[*].mac.hcf.edcaMgmtAndNonQoSRecoveryProcedure.cwCalculatorModule = "^.edca.edcaf[1]"
Using80211MAC.host[*].wlan[*].mac.hcf.edcaMgmtAndNonQoSRecoveryProcedure.longRetryLimit = 4
Using80211MAC.host[*].wlan[*].mac.hcf.edcaMgmtAndNonQoSRecoveryProcedure.rtsPolicyModule = "^.rtsPolicy"
Using80211MAC.host[*].wlan[*].mac.hcf.edcaMgmtAndNonQoSRecoveryProcedure.shortRetryLimit = 7
Using80211MAC.host[*].wlan[*].mac.hcf.edcaTxopProcedures[*].txopLimit = -1s
Using80211MAC.host[*].wlan[*].mac.hcf.isBlockAckSupported = false
#Using80211MAC.host[*].wlan[*].mac.hcf.maxQueueSize = maxQueueSize
Using80211MAC.host[*].wlan[*].mac.hcf.numEdcafs = 4
Using80211MAC.host[*].wlan[*].mac.hcf.originatorAckPolicy.ackTimeout = -1s
Using80211MAC.host[*].wlan[*].mac.hcf.originatorAckPolicy.blockAckReqTreshold = 5
Using80211MAC.host[*].wlan[*].mac.hcf.originatorAckPolicy.blockAckTimeout = -1s
Using80211MAC.host[*].wlan[*].mac.hcf.originatorAckPolicy.maxBlockAckPolicyFrameLength = 1000B
Using80211MAC.host[*].wlan[*].mac.hcf.originatorAckPolicy.rateSelectionModule = "^.rateSelection"
Using80211MAC.host[*].wlan[*].mac.hcf.originatorBlockAckAgreementPolicy.aMsduSupported = true
Using80211MAC.host[*].wlan[*].mac.hcf.originatorBlockAckAgreementPolicy.blockAckTimeoutValue = 0s
Using80211MAC.host[*].wlan[*].mac.hcf.originatorBlockAckAgreementPolicy.delayedAckPolicySupported = false
Using80211MAC.host[*].wlan[*].mac.hcf.originatorBlockAckAgreementPolicy.maximumAllowedBufferSize = 64
Using80211MAC.host[*].wlan[*].mac.hcf.originatorBlockAckAgreementPolicy.originatorAckPolicyModule = "^.originatorAckPolicy"
Using80211MAC.host[*].wlan[*].mac.hcf.originatorMacDataService.aMsduAggregationPolicyType = "BasicMsduAggregationPolicy"
Using80211MAC.host[*].wlan[*].mac.hcf.originatorMacDataService.fragmentationPolicy.fragmentationThreshold = 1500B
Using80211MAC.host[*].wlan[*].mac.hcf.originatorMacDataService.fragmentationPolicyType = "BasicFragmentationPolicy"
Using80211MAC.host[*].wlan[*].mac.hcf.originatorMacDataService.msduAggregationPolicy.aggregationLengthThreshold = -1
Using80211MAC.host[*].wlan[*].mac.hcf.originatorMacDataService.msduAggregationPolicy.maxAMsduSize = 4065
Using80211MAC.host[*].wlan[*].mac.hcf.originatorMacDataService.msduAggregationPolicy.qOsCheck = true
Using80211MAC.host[*].wlan[*].mac.hcf.originatorMacDataService.msduAggregationPolicy.subframeNumThreshold = -1
Using80211MAC.host[*].wlan[*].mac.hcf.prioritizeMulticast = false
#Using80211MAC.host[*].wlan[*].mac.hcf.rateControlType = rateControlType
#Using80211MAC.host[*].wlan[*].mac.hcf.rateSelection.controlFrameBitrate = controlBitrate
#Using80211MAC.host[*].wlan[*].mac.hcf.rateSelection.dataFrameBitrate = dataBitrate
#Using80211MAC.host[*].wlan[*].mac.hcf.rateSelection.mgmtFrameBitrate = mgmtBitrate
#Using80211MAC.host[*].wlan[*].mac.hcf.rateSelection.multicastFrameBitrate = multicastBitrate
Using80211MAC.host[*].wlan[*].mac.hcf.rateSelection.rateControlModule = "^.rateControl"
#Using80211MAC.host[*].wlan[*].mac.hcf.rateSelection.responseAckFrameBitrate = controlBitrate
Using80211MAC.host[*].wlan[*].mac.hcf.rateSelection.responseBlockAckFrameBitrate = -1bps
Using80211MAC.host[*].wlan[*].mac.hcf.rateSelection.responseCtsFrameBitrate = -1bps
Using80211MAC.host[*].wlan[*].mac.hcf.recipientAckPolicy.rateSelectionModule = "^.rateSelection"
Using80211MAC.host[*].wlan[*].mac.hcf.recipientBlockAckAgreementPolicy.aMsduSupported = true
Using80211MAC.host[*].wlan[*].mac.hcf.recipientBlockAckAgreementPolicy.blockAckTimeoutValue = 0s
Using80211MAC.host[*].wlan[*].mac.hcf.recipientBlockAckAgreementPolicy.delayedAckPolicySupported = false
Using80211MAC.host[*].wlan[*].mac.hcf.recipientBlockAckAgreementPolicy.maximumAllowedBufferSize = 64
Using80211MAC.host[*].wlan[*].mac.hcf.rtsPolicy.ctsTimeout = -1s
Using80211MAC.host[*].wlan[*].mac.hcf.rtsPolicy.rateSelectionModule = "^.rateSelection"
Using80211MAC.host[*].wlan[*].mac.hcf.rtsPolicy.rtsThreshold = 2346B
Using80211MAC.host[*].wlan[*].mac.hcf.rxModule = "^.rx"
Using80211MAC.host[*].wlan[*].mac.hcf.singleProtectionMechanism.rateSelectionModule = "^.rateSelection"
Using80211MAC.host[*].wlan[*].mac.hcf.txModule = "^.tx"
Using80211MAC.host[*].wlan[*].mac.initialRateControlRate = -1bps
#Using80211MAC.host[*].wlan[*].mac.interfaceTableModule = absPath(interfaceTableModule) 
Using80211MAC.host[*].wlan[*].mac.maxQueueSize = 14
#Using80211MAC.host[*].wlan[*].mac.mgmtBitrate = basicBitrate 
Using80211MAC.host[*].wlan[*].mac.modeSet = opMode
Using80211MAC.host[*].wlan[*].mac.mtu = 2304B
Using80211MAC.host[*].wlan[*].mac.multicastBitrate = 2Mbps
Using80211MAC.host[*].wlan[*].mac.opMode = opMode
Using80211MAC.host[*].wlan[*].mac.prioritizeMulticast = false
Using80211MAC.host[*].wlan[*].mac.qosStation = false
Using80211MAC.host[*].wlan[*].mac.rateControlType = ""
Using80211MAC.host[*].wlan[*].mac.retryLimit = -1
Using80211MAC.host[*].wlan[*].mac.rng-0 = 2
Using80211MAC.host[*].wlan[*].mac.rtsThresholdBytes = 100B
Using80211MAC.host[*].wlan[*].mac.rx.statisticsModule = ""
Using80211MAC.host[*].wlan[*].mac.slotTime = -1s
Using80211MAC.host[*].wlan[*].mac.tx.rxModule = "^.rx"
Using80211MAC.host[*].wlan[*].mac.tx.statisticsModule = ""
Using80211MAC.host[*].wlan[*].mac.TXOP0 = 0s
Using80211MAC.host[*].wlan[*].mac.TXOP1 = 0s
Using80211MAC.host[*].wlan[*].mac.TXOP2 = 3.008ms
Using80211MAC.host[*].wlan[*].mac.TXOP3 = 1.504ms
Using80211MAC.host[*].wlan[*].macType = "Ieee80211CompatibleMac"
Using80211MAC.host[*].wlan[*].mgmt.macModule = "^.mac"
Using80211MAC.host[*].wlan[*].mgmtType = "Ieee80211MgmtAdhoc"
Using80211MAC.host[*].wlan[*].opMode = "g(mixed)"
Using80211MAC.host[*].wlan[*].radio.antenna.mobilityModule = ".mobility"
Using80211MAC.host[*].wlan[*].radio.antenna.numAntennas = 1
Using80211MAC.host[*].wlan[*].radio.antennaType = "IsotropicAntenna"
Using80211MAC.host[*].wlan[*].radio.bandName = "2.4 GHz"
Using80211MAC.host[*].wlan[*].radio.bandwidth = 2MHz
Using80211MAC.host[*].wlan[*].radio.carrierFrequency = 2.412GHz
Using80211MAC.host[*].wlan[*].radio.channelNumber = 0
Using80211MAC.host[*].wlan[*].radio.displayCommunicationRange = false
Using80211MAC.host[*].wlan[*].radio.displayInterferenceRange = false
Using80211MAC.host[*].wlan[*].radio.energyConsumerType = "StateBasedEpEnergyConsumer"
#Using80211MAC.host[*].wlan[*].radio.energySourceModule = absPath(energySourceModule) 
#Using80211MAC.host[*].wlan[*].radio.opMode = opMode
Using80211MAC.host[*].wlan[*].radio.radioMediumModule = "radioMedium"
#Using80211MAC.host[*].wlan[*].radio.receiver.bandName = bandName
#Using80211MAC.host[*].wlan[*].radio.receiver.bandwidth = bandwidth
#Using80211MAC.host[*].wlan[*].radio.receiver.carrierFrequency = carrierFrequency
#Using80211MAC.host[*].wlan[*].radio.receiver.channelNumber = channelNumber
Using80211MAC.host[*].wlan[*].radio.receiver.energyDetection = -85dBm
Using80211MAC.host[*].wlan[*].radio.receiver.errorModelType = "Ieee80211NistErrorModel"
Using80211MAC.host[*].wlan[*].radio.receiver.modulation = "BPSK"
#Using80211MAC.host[*].wlan[*].radio.receiver.opMode = opMode
Using80211MAC.host[*].wlan[*].radio.receiver.sensitivity = -85dBm
Using80211MAC.host[*].wlan[*].radio.receiver.snirThreshold = 4dB
Using80211MAC.host[*].wlan[*].radio.receiverType = "Ieee80211ScalarReceiver"
Using80211MAC.host[*].wlan[*].radio.separateReceptionParts = false
Using80211MAC.host[*].wlan[*].radio.separateTransmissionParts = false
Using80211MAC.host[*].wlan[*].radio.switchingTimes = "ms 0 0 0 0 0 0 0 0 0 0 0 0 0 0 0 0 0 0 0 0 0 0 0 0 0"
#Using80211MAC.host[*].wlan[*].radio.transmitter.bandName = bandName
#Using80211MAC.host[*].wlan[*].radio.transmitter.bandwidth = bandwidth
#Using80211MAC.host[*].wlan[*].radio.transmitter.bitrate = bitrate
#Using80211MAC.host[*].wlan[*].radio.transmitter.carrierFrequency = carrierFrequency
#Using80211MAC.host[*].wlan[*].radio.transmitter.channelNumber = channelNumber
Using80211MAC.host[*].wlan[*].radio.transmitter.headerBitLength = 192b
Using80211MAC.host[*].wlan[*].radio.transmitter.modulation = "BPSK"
#Using80211MAC.host[*].wlan[*].radio.transmitter.opMode = opMode
Using80211MAC.host[*].wlan[*].radio.transmitter.power = 20mW
Using80211MAC.host[*].wlan[*].radio.transmitter.preambleDuration = 0s/0
Using80211MAC.host[*].wlan[*].radio.transmitterType = "Ieee80211ScalarTransmitter"
Using80211MAC.host[*].wlan[*].radioType = "Ieee80211ScalarRadio"
Using80211MAC.host[*].wlan[*].typename = "Ieee80211Nic"
#Using80211MAC.host[0].numPingApps = 0 
Using80211MAC.host[0].udpApp[*].localPort = 5000
Using80211MAC.host[0].udpApp[*].typename = "UDPSink"
#Using80211MAC.host[1].numPingApps = 1 
#Using80211MAC.host[1].pingApp[*].destAddr = "host[0]" 
Using80211MAC.host[1].udpApp[*].destAddresses = "host[0]"
Using80211MAC.host[1].udpApp[*].destPort = 5000
Using80211MAC.host[1].udpApp[*].messageLength = 1000B
Using80211MAC.host[1].udpApp[*].packetName = "UDPData"
Using80211MAC.host[1].udpApp[*].sendInterval = exponential(10ms)
Using80211MAC.host[1].udpApp[*].typename = "UDPBasicApp"
#Using80211MAC.host[2].numPingApps = 0 
Using80211MAC.host[2].udpApp[*].localPort = 5000
Using80211MAC.host[2].udpApp[*].typename = "UDPSink"
#Using80211MAC.host[3].numPingApps = 1 
#Using80211MAC.host[3].pingApp[*].destAddr = "host[2]" 
Using80211MAC.host[3].udpApp[*].destAddresses = "host[2]"
Using80211MAC.host[3].udpApp[*].destPort = 5000
Using80211MAC.host[3].udpApp[*].messageLength = 1000B
Using80211MAC.host[3].udpApp[*].packetName = "UDPData"
Using80211MAC.host[3].udpApp[*].sendInterval = exponential(10ms)
Using80211MAC.host[3].udpApp[*].typename = "UDPBasicApp"
Using80211MAC.numHosts = ${numHosts=2,4,10,20,50,100,200,500}
Using80211MAC.radioMedium.analogModelType = "ScalarAnalogModel"
Using80211MAC.radioMedium.backgroundNoise.power = -110dBm
Using80211MAC.radioMedium.backgroundNoiseType = "IsotropicScalarBackgroundNoise"
Using80211MAC.radioMedium.communicationCacheType = "VectorCommunicationCache"
Using80211MAC.radioMedium.listeningFilter = false
Using80211MAC.radioMedium.macAddressFilter = false
Using80211MAC.radioMedium.mediumLimitCache.carrierFrequency = 2.4GHz
Using80211MAC.radioMedium.mediumLimitCache.maxAntennaGain = 0dB
Using80211MAC.radioMedium.mediumLimitCache.maxCommunicationRange = 0m/0
Using80211MAC.radioMedium.mediumLimitCache.maxInterferenceRange = 0m/0
Using80211MAC.radioMedium.mediumLimitCache.maxSpeed = 0mps/0
Using80211MAC.radioMedium.mediumLimitCache.maxTransmissionDuration = 10ms
Using80211MAC.radioMedium.mediumLimitCache.maxTransmissionPower = 0W/0
Using80211MAC.radioMedium.mediumLimitCache.minInterferencePower = -110dBm
Using80211MAC.radioMedium.mediumLimitCache.minInterferenceTime = 1ps
Using80211MAC.radioMedium.mediumLimitCache.minReceptionPower = -85dBm
Using80211MAC.radioMedium.mediumLimitCacheType = "MediumLimitCache"
Using80211MAC.radioMedium.neighborCacheType = ""
Using80211MAC.radioMedium.obstacleLossType = ""
Using80211MAC.radioMedium.pathLoss.alpha = 2
Using80211MAC.radioMedium.pathLoss.systemLoss = 0dB
Using80211MAC.radioMedium.pathLossType = "RayleighFading"
Using80211MAC.radioMedium.physicalEnvironmentModule = "physicalEnvironment"
Using80211MAC.radioMedium.propagation.ignoreMovementDuringPropagation = true
Using80211MAC.radioMedium.propagation.ignoreMovementDuringReception = true
Using80211MAC.radioMedium.propagation.ignoreMovementDuringTransmission = true
Using80211MAC.radioMedium.propagation.propagationSpeed = 299792458mps
Using80211MAC.radioMedium.propagationType = "ConstantSpeedPropagation"
Using80211MAC.radioMedium.radioModeFilter = false
Using80211MAC.radioMedium.rangeFilter = ""
Using80211MAC.radioMedium.recordCommunicationLog = false
Using80211MAC.radioMediumType = "Ieee80211ScalarRadioMedium"
Using80211MAC.visualizer.dataLinkVisualizer.displayLinks = false